# ********************************************************************************
# *  Copyright: National ICT Australia,  2007 - 2010                             *
# *  Developed at the ATP lab, Networked Systems research theme                  *
# *  Author(s): Athanassios Boulis, Dimosthenis Pediaditakis, Yuriy Tselishchev  *
# *  This file is distributed under the terms in the attached LICENSE file.      *
# *  If you do not find this file, copies can be found by writing to:            *
# *                                                                              *
# *      NICTA, Locked Bag 9013, Alexandria, NSW 1435, Australia                 *
# *      Attention:  License Inquiry.                                            *
# *                                                                              *
# *******************************************************************************/

[General]

# ==========================================================
# Always include the main Castalia.ini file
# ==========================================================

include ../Parameters/Castalia.ini

sim-time-limit = 100s


SN.field_x = 60					# meters
SN.field_y = 60					# meters
SN.numNodes = 16
SN.deployment = "randomized_4x4"

# Using ideal parameters for wireless channel and CC2420 radio
include ../Parameters/WirelessChannel/Ideal.ini
SN.node[*].Communication.Radio.RadioParametersFile = "../Parameters/Radio/CC2420.txt"
#SN.node[*].Communication.Radio.mode = "IDEAL"

SN.node[*].ResourceManager.sigmaCPUClockDrift = 0

# Using CSMA (carrier sense) MAC and simple tree routing
SN.node[*].Communication.MACProtocolName = "BypassMAC"
SN.node[*].Communication.RoutingProtocolName = "BypassRouting"

SN.node[*].ApplicationName = "chaos"


#SN.wirelessChannel.printDebugInfo = true

